# ====================
# | Model parameters |
# ====================

# Continuous equation parameters
 &PARM01
 &

# Elliptic solver parameters
 &PARM02
 &

# Time stepping parameters
 &PARM03
 &

# Gridding parameters
 &PARM04
usingSphericalPolarGrid=.TRUE.,
delX=240*0.083333,
delY=260*0.0625,
xgOrigin=-135,
ygOrigin=29,
 &

# Input datasets
 &PARM05
 bathyFile = 'CA_bathymetry.bin',
 &
